ref_ligand.pdb
 OpenBabel04272603193D

137146  0  0  1  0  0  0  0  0999 V2000
   30.9340  -25.1120   14.6770 O   0  0  0  0  0  0  0  0  0  0  0  0
   29.7440  -25.3270   14.4560 C   0  0  0  0  0  0  0  0  0  0  0  0
   28.8420  -25.9740   15.5310 C   0  0  1  0  0  0  0  0  0  0  0  0
   29.5120  -26.9160   16.4550 N   0  0  0  0  0  0  0  0  0  0  0  0
   29.4250  -26.4120   17.8380 C   0  0  0  0  0  0  0  0  0  0  0  0
   28.1860  -25.5020   17.8270 C   0  0  2  0  0  0  0  0  0  0  0  0
   26.9880  -26.2530   17.9050 O   0  0  0  0  0  0  0  0  0  0  0  0
   28.2440  -24.8920   16.4430 C   0  0  0  0  0  0  0  0  0  0  0  0
   30.0870  -28.0790   16.0390 C   0  0  0  0  0  0  0  0  0  0  0  0
   30.8410  -28.9970   17.0490 C   0  0  1  0  0  0  0  0  0  0  0  0
   30.5590  -30.4010   16.7150 N   0  0  0  0  0  0  0  0  0  0  0  0
   29.7150  -31.2250   17.3440 C   0  0  0  0  0  0  0  0  0  0  0  0
   29.6000  -32.6600   16.7770 C   0  0  0  0  0  0  0  0  0  0  0  0
   30.1890  -32.8690   15.5910 F   0  0  0  0  0  0  0  0  0  0  0  0
   28.3260  -33.4260   17.0360 C   0  0  0  0  0  0  0  0  0  0  0  0
   29.5860  -33.7940   17.7810 C   0  0  0  0  0  0  0  0  0  0  0  0
   29.0470  -30.8720   18.3150 O   0  0  0  0  0  0  0  0  0  0  0  0
   32.3930  -28.7480   17.1040 C   0  0  0  0  0  0  0  0  0  0  0  0
   32.9910  -29.6230   18.2340 C   0  0  0  0  0  0  0  0  0  0  0  0
   33.1000  -29.1620   15.7850 C   0  0  0  0  0  0  0  0  0  0  0  0
   32.7650  -27.2760   17.4050 C   0  0  0  0  0  0  0  0  0  0  0  0
   30.0440  -28.4300   14.8500 O   0  0  0  0  0  0  0  0  0  0  0  0
   29.1340  -24.9070   13.3400 N   0  0  0  0  0  0  0  0  0  0  0  0
   29.7770  -24.1150   12.2850 C   0  0  2  0  0  0  0  0  0  0  0  0
   29.4050  -22.6300   12.3560 C   0  0  0  0  0  0  0  0  0  0  0  0
   30.1990  -21.7050   11.6690 C   0  0  0  0  0  0  0  0  0  0  0  0
   29.8690  -20.3550   11.6730 C   0  0  0  0  0  0  0  0  0  0  0  0
   28.7520  -19.9120   12.3800 C   0  0  0  0  0  0  0  0  0  0  0  0
   28.3270  -18.4880   12.3180 C   0  0  0  0  0  0  0  0  0  0  0  0
   28.2090  -17.6040   11.2370 C   0  0  0  0  0  0  0  0  0  0  0  0
   28.5920  -17.8560    9.7910 C   0  0  0  0  0  0  0  0  0  0  0  0
   27.6580  -16.4230   11.4950 N   0  0  0  0  0  0  0  0  0  0  0  0
   27.4140  -16.3110   12.7820 C   0  0  0  0  0  0  0  0  0  0  0  0
   27.7940  -17.6760   13.7600 S   0  0  0  0  0  0  0  0  0  0  0  0
   28.0040  -20.8210   13.1300 C   0  0  0  0  0  0  0  0  0  0  0  0
   28.3190  -22.1720   13.1140 C   0  0  0  0  0  0  0  0  0  0  0  0
   29.2930  -24.6490   10.8930 C   0  0  0  0  0  0  0  0  0  0  0  0
   29.9600  -25.9190   10.3040 C   0  0  0  0  0  0  0  0  0  0  0  0
   29.2810  -26.4030    8.9840 C   0  0  0  0  0  0  0  0  0  0  0  0
   30.1580  -27.3080    8.0760 C   0  0  0  0  0  0  0  0  0  0  0  0
   29.4370  -27.9770    6.8590 C   0  0  0  0  0  0  0  0  0  0  0  0
   28.3470  -28.8770    7.2500 N   0  0  0  0  0  0  0  0  0  0  0  0
   28.6950  -29.9550    8.3160 C   0  0  0  0  0  0  0  0  0  0  0  0
   29.3580  -31.1480    7.6130 C   0  0  0  0  0  0  0  0  0  0  0  0
   28.4960  -31.7340    6.4690 C   0  0  2  0  0  0  0  0  0  0  0  0
   29.1590  -32.8650    5.6820 C   0  0  0  0  0  0  0  0  0  0  0  0
   30.5350  -33.1160    5.7580 C   0  0  0  0  0  0  0  0  0  0  0  0
   31.1380  -34.0390    4.9110 C   0  0  0  0  0  0  0  0  0  0  0  0
   30.3850  -34.7350    3.9630 C   0  0  0  0  0  0  0  0  0  0  0  0
   29.0130  -34.4930    3.8980 C   0  0  0  0  0  0  0  0  0  0  0  0
   28.5410  -35.2560    2.8430 N   0  3  0  0  0  0  0  0  0  0  0  0
   27.1550  -35.3360    2.3560 C   0  0  0  0  0  0  0  0  0  0  0  0
   26.5050  -33.9880    1.9660 C   0  0  0  0  0  0  0  0  0  0  0  0
   25.1270  -33.9750    2.6430 C   0  0  0  0  0  0  0  0  0  0  0  0
   24.8290  -35.4420    2.9430 C   0  0  0  0  0  0  0  0  0  0  0  0
   26.1890  -36.0120    3.3410 C   0  0  0  0  0  0  0  0  0  0  0  0
   29.5990  -36.0030    2.2450 C   0  0  0  0  0  0  0  0  0  0  0  0
   29.4990  -36.7870    1.2490 N   0  0  0  0  0  0  0  0  0  0  0  0
   30.5870  -37.5580    0.8790 C   0  0  0  0  0  0  0  0  0  0  0  0
   31.9260  -37.2280    1.5280 C   0  0  0  0  0  0  0  0  0  0  0  0
   33.1220  -37.8410    1.1080 C   0  0  0  0  0  0  0  0  0  0  0  0
   34.3120  -37.5750    1.7820 C   0  0  0  0  0  0  0  0  0  0  0  0
   34.3340  -36.6840    2.8390 C   0  0  0  0  0  0  0  0  0  0  0  0
   33.1660  -36.0430    3.2210 C   0  0  0  0  0  0  0  0  0  0  0  0
   31.9440  -36.2990    2.5930 C   0  0  0  0  0  0  0  0  0  0  0  0
   30.7270  -35.6820    2.9800 N   0  0  0  0  0  0  0  0  0  0  0  0
   30.4580  -38.5170    0.1340 O   0  0  0  0  0  0  0  0  0  0  0  0
   28.3960  -33.5940    4.7680 C   0  0  0  0  0  0  0  0  0  0  0  0
   28.0690  -30.6240    5.4850 C   0  0  0  0  0  0  0  0  0  0  0  0
   27.3840  -29.4480    6.1830 C   0  0  0  0  0  0  0  0  0  0  0  0
   28.0360  -26.5260   15.0450 H   0  0  0  0  0  0  0  0  0  0  0  0
   30.3200  -25.8350   18.0680 H   0  0  0  0  0  0  0  0  0  0  0  0
   29.3000  -27.1820   18.5980 H   0  0  0  0  0  0  0  0  0  0  0  0
   28.2120  -24.7580   18.6250 H   0  0  0  0  0  0  0  0  0  0  0  0
   26.2550  -25.6660   18.0150 H   0  0  0  0  0  0  0  0  0  0  0  0
   28.9050  -24.0220   16.4820 H   0  0  0  0  0  0  0  0  0  0  0  0
   27.2780  -24.5340   16.0860 H   0  0  0  0  0  0  0  0  0  0  0  0
   30.4560  -28.8230   18.0500 H   0  0  0  0  0  0  0  0  0  0  0  0
   30.9700  -30.7430   15.8590 H   0  0  0  0  0  0  0  0  0  0  0  0
   27.5370  -32.9340   17.6030 H   0  0  0  0  0  0  0  0  0  0  0  0
   27.9830  -34.0910   16.2470 H   0  0  0  0  0  0  0  0  0  0  0  0
   29.6310  -33.5400   18.8380 H   0  0  0  0  0  0  0  0  0  0  0  0
   30.1060  -34.7070   17.5000 H   0  0  0  0  0  0  0  0  0  0  0  0
   32.5310  -29.3970   19.1970 H   0  0  0  0  0  0  0  0  0  0  0  0
   32.8480  -30.6880   18.0490 H   0  0  0  0  0  0  0  0  0  0  0  0
   34.0640  -29.4600   18.3410 H   0  0  0  0  0  0  0  0  0  0  0  0
   32.7460  -28.5740   14.9370 H   0  0  0  0  0  0  0  0  0  0  0  0
   34.1780  -29.0070   15.8480 H   0  0  0  0  0  0  0  0  0  0  0  0
   32.9450  -30.2130   15.5420 H   0  0  0  0  0  0  0  0  0  0  0  0
   32.3430  -26.9470   18.3550 H   0  0  0  0  0  0  0  0  0  0  0  0
   32.4170  -26.5940   16.6270 H   0  0  0  0  0  0  0  0  0  0  0  0
   33.8450  -27.1460   17.4740 H   0  0  0  0  0  0  0  0  0  0  0  0
   28.1590  -25.1260   13.2230 H   0  0  0  0  0  0  0  0  0  0  0  0
   30.8650  -24.1960   12.3410 H   0  0  0  0  0  0  0  0  0  0  0  0
   31.0590  -22.0410   11.1070 H   0  0  0  0  0  0  0  0  0  0  0  0
   30.4720  -19.6560   11.1130 H   0  0  0  0  0  0  0  0  0  0  0  0
   27.9690  -17.2840    9.1030 H   0  0  0  0  0  0  0  0  0  0  0  0
   29.6300  -17.5780    9.6080 H   0  0  0  0  0  0  0  0  0  0  0  0
   28.4790  -18.9080    9.5300 H   0  0  0  0  0  0  0  0  0  0  0  0
   26.9830  -15.3980   13.1660 H   0  0  0  0  0  0  0  0  0  0  0  0
   27.1430  -20.4860   13.6900 H   0  0  0  0  0  0  0  0  0  0  0  0
   27.6990  -22.8520   13.6770 H   0  0  0  0  0  0  0  0  0  0  0  0
   29.4600  -23.8680   10.1500 H   0  0  0  0  0  0  0  0  0  0  0  0
   28.2100  -24.7790   10.9160 H   0  0  0  0  0  0  0  0  0  0  0  0
   29.9450  -26.7250   11.0390 H   0  0  0  0  0  0  0  0  0  0  0  0
   31.0120  -25.7000   10.1180 H   0  0  0  0  0  0  0  0  0  0  0  0
   28.9730  -25.5400    8.3930 H   0  0  0  0  0  0  0  0  0  0  0  0
   28.3590  -26.9260    9.2400 H   0  0  0  0  0  0  0  0  0  0  0  0
   30.6670  -28.0570    8.6790 H   0  0  0  0  0  0  0  0  0  0  0  0
   30.9670  -26.6930    7.6820 H   0  0  0  0  0  0  0  0  0  0  0  0
   30.1650  -28.5290    6.2620 H   0  0  0  0  0  0  0  0  0  0  0  0
   29.0300  -27.1990    6.2110 H   0  0  0  0  0  0  0  0  0  0  0  0
   27.7660  -30.2850    8.7820 H   0  0  0  0  0  0  0  0  0  0  0  0
   29.3090  -29.5730    9.1300 H   0  0  0  0  0  0  0  0  0  0  0  0
   29.5830  -31.9220    8.3480 H   0  0  0  0  0  0  0  0  0  0  0  0
   30.3130  -30.7910    7.2300 H   0  0  0  0  0  0  0  0  0  0  0  0
   27.5940  -32.1450    6.9260 H   0  0  0  0  0  0  0  0  0  0  0  0
   31.1710  -32.5830    6.4490 H   0  0  0  0  0  0  0  0  0  0  0  0
   32.1980  -34.1450    5.0370 H   0  0  0  0  0  0  0  0  0  0  0  0
   27.1220  -35.9410    1.4470 H   0  0  0  0  0  0  0  0  0  0  0  0
   27.0820  -33.1120    2.2640 H   0  0  0  0  0  0  0  0  0  0  0  0
   26.3860  -33.9310    0.8820 H   0  0  0  0  0  0  0  0  0  0  0  0
   25.1640  -33.4080    3.5750 H   0  0  0  0  0  0  0  0  0  0  0  0
   24.3580  -33.5170    2.0180 H   0  0  0  0  0  0  0  0  0  0  0  0
   24.0770  -35.5640    3.7250 H   0  0  0  0  0  0  0  0  0  0  0  0
   24.4540  -35.9420    2.0480 H   0  0  0  0  0  0  0  0  0  0  0  0
   26.4080  -35.7370    4.3740 H   0  0  0  0  0  0  0  0  0  0  0  0
   26.2160  -37.1010    3.2780 H   0  0  0  0  0  0  0  0  0  0  0  0
   33.1190  -38.5480    0.2890 H   0  0  0  0  0  0  0  0  0  0  0  0
   35.2250  -38.0670    1.4750 H   0  0  0  0  0  0  0  0  0  0  0  0
   35.2630  -36.4820    3.3550 H   0  0  0  0  0  0  0  0  0  0  0  0
   33.2810  -35.3710    4.0430 H   0  0  0  0  0  0  0  0  0  0  0  0
   27.3340  -33.4050    4.7000 H   0  0  0  0  0  0  0  0  0  0  0  0
   28.9420  -30.2570    4.9440 H   0  0  0  0  0  0  0  0  0  0  0  0
   27.3860  -31.0170    4.7320 H   0  0  0  0  0  0  0  0  0  0  0  0
   27.1130  -28.6670    5.4710 H   0  0  0  0  0  0  0  0  0  0  0  0
   26.4630  -29.7760    6.6670 H   0  0  0  0  0  0  0  0  0  0  0  0
  2  1  2  0  0  0  0
  2  3  1  0  0  0  0
  3 71  1  6  0  0  0
  3  8  1  0  0  0  0
  3  4  1  0  0  0  0
  4  5  1  0  0  0  0
  5 72  1  0  0  0  0
  5 73  1  0  0  0  0
  6  5  1  0  0  0  0
  6  7  1  0  0  0  0
  6 74  1  1  0  0  0
  7 75  1  0  0  0  0
  8 76  1  0  0  0  0
  8  6  1  0  0  0  0
  9  4  1  0  0  0  0
  9 10  1  0  0  0  0
 10 18  1  0  0  0  0
 10 78  1  1  0  0  0
 11 10  1  0  0  0  0
 11 12  1  0  0  0  0
 12 17  2  0  0  0  0
 13 15  1  0  0  0  0
 13 12  1  0  0  0  0
 13 16  1  0  0  0  0
 14 13  1  0  0  0  0
 15 80  1  0  0  0  0
 15 16  1  0  0  0  0
 16 82  1  0  0  0  0
 18 21  1  0  0  0  0
 18 19  1  0  0  0  0
 19 86  1  0  0  0  0
 19 84  1  0  0  0  0
 20 88  1  0  0  0  0
 20 18  1  0  0  0  0
 21 92  1  0  0  0  0
 21 90  1  0  0  0  0
 22  9  2  0  0  0  0
 23  2  1  0  0  0  0
 24 94  1  1  0  0  0
 24 25  1  0  0  0  0
 24 23  1  0  0  0  0
 25 36  1  0  0  0  0
 26 27  1  0  0  0  0
 26 25  2  0  0  0  0
 27 28  2  0  0  0  0
 28 35  1  0  0  0  0
 29 28  1  0  0  0  0
 29 34  1  0  0  0  0
 30 32  1  0  0  0  0
 30 29  2  0  0  0  0
 31 30  1  0  0  0  0
 32 33  2  0  0  0  0
 33100  1  0  0  0  0
 33 34  1  0  0  0  0
 35101  1  0  0  0  0
 36 35  2  0  0  0  0
 36102  1  0  0  0  0
 37104  1  0  0  0  0
 37 24  1  0  0  0  0
 38 37  1  0  0  0  0
 38105  1  0  0  0  0
 39108  1  0  0  0  0
 39 38  1  0  0  0  0
 40109  1  0  0  0  0
 40 39  1  0  0  0  0
 41 42  1  0  0  0  0
 41 40  1  0  0  0  0
 42 43  1  0  0  0  0
 43113  1  0  0  0  0
 43114  1  0  0  0  0
 44 43  1  0  0  0  0
 44115  1  0  0  0  0
 45117  1  1  0  0  0
 45 44  1  0  0  0  0
 46 47  1  0  0  0  0
 46 45  1  0  0  0  0
 47118  1  0  0  0  0
 48119  1  0  0  0  0
 48 47  2  0  0  0  0
 49 48  1  0  0  0  0
 50 49  2  0  0  0  0
 50 68  1  0  0  0  0
 51 50  1  0  0  0  0
 52 51  1  0  0  0  0
 52 56  1  0  0  0  0
 53121  1  0  0  0  0
 53 52  1  0  0  0  0
 53 54  1  0  0  0  0
 54 55  1  0  0  0  0
 54123  1  0  0  0  0
 55 56  1  0  0  0  0
 55125  1  0  0  0  0
 56127  1  0  0  0  0
 57 51  2  0  0  0  0
 57 66  1  0  0  0  0
 58 57  1  0  0  0  0
 59 58  1  0  0  0  0
 59 60  1  0  0  0  0
 60 65  1  0  0  0  0
 61 60  2  0  0  0  0
 61 62  1  0  0  0  0
 62 63  2  0  0  0  0
 63 64  1  0  0  0  0
 63131  1  0  0  0  0
 64132  1  0  0  0  0
 65 66  1  0  0  0  0
 65 64  2  0  0  0  0
 66 49  1  0  0  0  0
 67 59  2  0  0  0  0
 68 46  2  0  0  0  0
 69 70  1  0  0  0  0
 69 45  1  0  0  0  0
 70137  1  0  0  0  0
 70 42  1  0  0  0  0
 77  8  1  0  0  0  0
 79 11  1  0  0  0  0
 81 15  1  0  0  0  0
 83 16  1  0  0  0  0
 85 19  1  0  0  0  0
 87 20  1  0  0  0  0
 89 20  1  0  0  0  0
 91 21  1  0  0  0  0
 93 23  1  0  0  0  0
 95 26  1  0  0  0  0
 96 27  1  0  0  0  0
 97 31  1  0  0  0  0
 98 31  1  0  0  0  0
 99 31  1  0  0  0  0
103 37  1  0  0  0  0
106 38  1  0  0  0  0
107 39  1  0  0  0  0
110 40  1  0  0  0  0
111 41  1  0  0  0  0
112 41  1  0  0  0  0
116 44  1  0  0  0  0
120 52  1  0  0  0  0
122 53  1  0  0  0  0
124 54  1  0  0  0  0
126 55  1  0  0  0  0
128 56  1  0  0  0  0
129 61  1  0  0  0  0
130 62  1  0  0  0  0
133 68  1  0  0  0  0
134 69  1  0  0  0  0
135 69  1  0  0  0  0
136 70  1  0  0  0  0
M  CHG  1  51   1
M  END
$$$$
