ref_ligand.pdb
 OpenBabel04192612033D

184193  0  0  1  0  0  0  0  0999 V2000
  -29.6040   -4.9160   -4.3190 F   0  0  0  0  0  0  0  0  0  0  0  0
  -30.0990   -5.4100   -5.4540 C   0  0  0  0  0  0  0  0  0  0  0  0
  -29.3730   -6.6060   -6.0040 C   0  0  0  0  0  0  0  0  0  0  0  0
  -29.2640   -5.2630   -6.7060 C   0  0  0  0  0  0  0  0  0  0  0  0
  -31.6390   -5.3720   -5.6090 C   0  0  0  0  0  0  0  0  0  0  0  0
  -32.3000   -4.8600   -4.5750 N   0  0  0  0  0  0  0  0  0  0  0  0
  -33.7440   -4.6310   -4.4280 C   0  0  2  0  0  0  0  0  0  0  0  0
  -33.9080   -3.1080   -4.1750 C   0  0  0  0  0  0  0  0  0  0  0  0
  -34.9600   -2.4290   -4.7070 N   0  0  0  0  0  0  0  0  0  0  0  0
  -36.0370   -2.9710   -5.5510 C   0  0  0  0  0  0  0  0  0  0  0  0
  -36.5930   -1.7380   -6.2860 C   0  0  2  0  0  0  0  0  0  0  0  0
  -35.7810   -1.3510   -7.3790 O   0  0  0  0  0  0  0  0  0  0  0  0
  -36.4660   -0.6640   -5.2260 C   0  0  0  0  0  0  0  0  0  0  0  0
  -35.1700   -0.9860   -4.4660 C   0  0  1  0  0  0  0  0  0  0  0  0
  -35.2990   -0.5450   -2.9910 C   0  0  0  0  0  0  0  0  0  0  0  0
  -34.8920    0.6950   -2.7220 N   0  0  0  0  0  0  0  0  0  0  0  0
  -35.1670    1.4170   -1.4720 C   0  0  0  0  0  0  0  0  0  0  0  0
  -36.4070    2.3180   -1.4880 C   0  0  0  0  0  0  0  0  0  0  0  0
  -36.7650    3.0240   -0.3280 C   0  0  0  0  0  0  0  0  0  0  0  0
  -35.9790    2.8570    0.8010 O   0  0  0  0  0  0  0  0  0  0  0  0
  -35.9970    3.8650    1.8240 C   0  0  0  0  0  0  0  0  0  0  0  0
  -34.5940    4.4430    2.0320 C   0  0  0  0  0  0  0  0  0  0  0  0
  -33.6980    3.4430    2.5530 N   0  0  0  0  0  0  0  0  0  0  0  0
  -33.6000    3.2610    3.8910 N   0  0  0  0  0  0  0  0  0  0  0  0
  -32.7980    2.2640    4.0770 N   0  0  0  0  0  0  0  0  0  0  0  0
  -32.3680    1.7910    2.8380 C   0  0  0  0  0  0  0  0  0  0  0  0
  -31.4880    0.6020    2.6940 C   0  0  0  0  0  0  0  0  0  0  0  0
  -30.3310    0.9190    1.9320 O   0  0  0  0  0  0  0  0  0  0  0  0
  -29.3700   -0.0600    1.8510 C   0  0  0  0  0  0  0  0  0  0  0  0
  -29.6280   -1.4190    2.0870 C   0  0  0  0  0  0  0  0  0  0  0  0
  -28.6010   -2.3470    2.0160 C   0  0  0  0  0  0  0  0  0  0  0  0
  -27.3060   -1.9200    1.7130 C   0  0  0  0  0  0  0  0  0  0  0  0
  -26.1660   -2.9310    1.7330 C   0  0  2  0  0  0  0  0  0  0  0  0
  -25.1190   -2.3510    2.4910 O   0  0  0  0  0  0  0  0  0  0  0  0
  -24.4290   -3.0580    3.3840 C   0  0  0  0  0  0  0  0  0  0  0  0
  -23.4980   -2.2200    4.2960 C   0  0  1  0  0  0  0  0  0  0  0  0
  -23.3360   -0.7850    3.8870 N   0  0  0  0  0  0  0  0  0  0  0  0
  -24.4240    0.1860    4.1990 C   0  0  0  0  0  0  0  0  0  0  0  0
  -24.7440    0.0900    5.7000 C   0  0  0  0  0  0  0  0  0  0  0  0
  -25.1520   -1.3350    6.0690 C   0  0  0  0  0  0  0  0  0  0  0  0
  -23.9920   -2.2890    5.7600 C   0  0  0  0  0  0  0  0  0  0  0  0
  -22.3780   -0.4870    2.9700 C   0  0  0  0  0  0  0  0  0  0  0  0
  -22.1240    0.9710    2.4980 C   0  0  2  0  0  0  0  0  0  0  0  0
  -23.1060    1.2990    1.3580 C   0  0  0  0  0  0  0  0  0  0  0  0
  -23.0160    0.6630    0.1100 C   0  0  0  0  0  0  0  0  0  0  0  0
  -23.8560    1.0140   -0.9540 C   0  0  0  0  0  0  0  0  0  0  0  0
  -23.7450    0.4760   -2.2220 O   0  0  0  0  0  0  0  0  0  0  0  0
  -22.8350   -0.5920   -2.4550 C   0  0  0  0  0  0  0  0  0  0  0  0
  -24.8210    2.0170   -0.7620 C   0  0  0  0  0  0  0  0  0  0  0  0
  -25.6210    2.4090   -1.8210 O   0  0  0  0  0  0  0  0  0  0  0  0
  -27.0210    2.4360   -1.5520 C   0  0  0  0  0  0  0  0  0  0  0  0
  -24.9280    2.6420    0.4910 C   0  0  0  0  0  0  0  0  0  0  0  0
  -25.8800    3.6020    0.7050 O   0  0  0  0  0  0  0  0  0  0  0  0
  -25.3980    4.9320    0.6330 C   0  0  0  0  0  0  0  0  0  0  0  0
  -24.0750    2.2850    1.5280 C   0  0  0  0  0  0  0  0  0  0  0  0
  -20.6300    1.2550    2.1010 C   0  0  0  0  0  0  0  0  0  0  0  0
  -19.6290    1.1320    3.2870 C   0  0  0  0  0  0  0  0  0  0  0  0
  -18.1660    1.3510    2.8360 C   0  0  0  0  0  0  0  0  0  0  0  0
  -17.9760    2.7010    2.1160 C   0  0  0  0  0  0  0  0  0  0  0  0
  -19.0100    2.9110    0.9940 C   0  0  0  0  0  0  0  0  0  0  0  0
  -20.4460    2.6630    1.4960 C   0  0  0  0  0  0  0  0  0  0  0  0
  -21.6520   -1.3680    2.5030 O   0  0  0  0  0  0  0  0  0  0  0  0
  -24.5320   -4.2780    3.5120 O   0  0  0  0  0  0  0  0  0  0  0  0
  -25.6650   -3.3210    0.3300 C   0  0  0  0  0  0  0  0  0  0  0  0
  -26.6200   -4.3050   -0.3690 C   0  0  0  0  0  0  0  0  0  0  0  0
  -26.3860   -5.7670   -0.0290 C   0  0  0  0  0  0  0  0  0  0  0  0
  -27.2840   -6.4570    0.7840 C   0  0  0  0  0  0  0  0  0  0  0  0
  -27.0990   -7.8150    1.0470 C   0  0  0  0  0  0  0  0  0  0  0  0
  -26.0070   -8.5050    0.4900 C   0  0  0  0  0  0  0  0  0  0  0  0
  -25.7850   -9.8590    0.6690 O   0  0  0  0  0  0  0  0  0  0  0  0
  -26.4940  -10.5730    1.6640 C   0  0  0  0  0  0  0  0  0  0  0  0
  -25.0900   -7.8090   -0.3180 C   0  0  0  0  0  0  0  0  0  0  0  0
  -24.0210   -8.5390   -0.8210 O   0  0  0  0  0  0  0  0  0  0  0  0
  -22.9700   -7.8670   -1.4990 C   0  0  0  0  0  0  0  0  0  0  0  0
  -25.2910   -6.4410   -0.5750 C   0  0  0  0  0  0  0  0  0  0  0  0
  -27.0470   -0.5680    1.4590 C   0  0  0  0  0  0  0  0  0  0  0  0
  -28.0780    0.3600    1.5540 C   0  0  0  0  0  0  0  0  0  0  0  0
  -32.9180    2.5540    1.8540 C   0  0  0  0  0  0  0  0  0  0  0  0
  -37.8920    3.8570   -0.3590 C   0  0  0  0  0  0  0  0  0  0  0  0
  -38.6670    4.0090   -1.5070 C   0  0  0  0  0  0  0  0  0  0  0  0
  -39.8560    4.9260   -1.4960 C   0  0  0  0  0  0  0  0  0  0  0  0
  -40.1440    6.0880   -0.7530 C   0  0  0  0  0  0  0  0  0  0  0  0
  -39.2860    6.7740    0.2930 C   0  0  0  0  0  0  0  0  0  0  0  0
  -41.3190    6.6690   -0.9850 N   0  0  0  0  0  0  0  0  0  0  0  0
  -41.9570    6.0360   -1.9370 C   0  0  0  0  0  0  0  0  0  0  0  0
  -41.2110    4.6120   -2.5550 S   0  0  0  0  0  0  0  0  0  0  0  0
  -38.2950    3.3020   -2.6530 C   0  0  0  0  0  0  0  0  0  0  0  0
  -37.1740    2.4750   -2.6510 C   0  0  0  0  0  0  0  0  0  0  0  0
  -35.8520   -1.2730   -2.1690 O   0  0  0  0  0  0  0  0  0  0  0  0
  -33.0370   -2.5310   -3.5140 O   0  0  0  0  0  0  0  0  0  0  0  0
  -34.3420   -5.5420   -3.2820 C   0  0  0  0  0  0  0  0  0  0  0  0
  -34.3140   -7.0140   -3.7510 C   0  0  0  0  0  0  0  0  0  0  0  0
  -33.5280   -5.4470   -1.9630 C   0  0  0  0  0  0  0  0  0  0  0  0
  -35.8100   -5.2000   -2.9500 C   0  0  0  0  0  0  0  0  0  0  0  0
  -32.2190   -5.7960   -6.6070 O   0  0  0  0  0  0  0  0  0  0  0  0
  -28.5140   -6.9640   -5.4410 H   0  0  0  0  0  0  0  0  0  0  0  0
  -28.3360   -4.7040   -6.6150 H   0  0  0  0  0  0  0  0  0  0  0  0
  -29.7830   -5.1530   -7.6560 H   0  0  0  0  0  0  0  0  0  0  0  0
  -29.9610   -7.3780   -6.4960 H   0  0  0  0  0  0  0  0  0  0  0  0
  -35.7130   -3.7180   -6.2750 H   0  0  0  0  0  0  0  0  0  0  0  0
  -36.2020   -0.6470   -7.8500 H   0  0  0  0  0  0  0  0  0  0  0  0
  -36.4700    0.3480   -5.6330 H   0  0  0  0  0  0  0  0  0  0  0  0
  -35.2570    0.7140   -0.6400 H   0  0  0  0  0  0  0  0  0  0  0  0
  -36.6280    4.7270    1.6310 H   0  0  0  0  0  0  0  0  0  0  0  0
  -34.1940    4.8250    1.0930 H   0  0  0  0  0  0  0  0  0  0  0  0
  -31.1980    0.2270    3.6780 H   0  0  0  0  0  0  0  0  0  0  0  0
  -30.6140   -1.7870    2.3250 H   0  0  0  0  0  0  0  0  0  0  0  0
  -28.8000   -3.3900    2.2170 H   0  0  0  0  0  0  0  0  0  0  0  0
  -24.1980    1.2260    4.0060 H   0  0  0  0  0  0  0  0  0  0  0  0
  -23.8840    0.4050    6.2930 H   0  0  0  0  0  0  0  0  0  0  0  0
  -25.4100   -1.3900    7.1280 H   0  0  0  0  0  0  0  0  0  0  0  0
  -23.1560   -2.0450    6.4160 H   0  0  0  0  0  0  0  0  0  0  0  0
  -24.2730   -3.3100    6.0220 H   0  0  0  0  0  0  0  0  0  0  0  0
  -26.0460   -1.6280    5.5160 H   0  0  0  0  0  0  0  0  0  0  0  0
  -25.5560    0.7770    5.9450 H   0  0  0  0  0  0  0  0  0  0  0  0
  -25.3100   -0.0450    3.6090 H   0  0  0  0  0  0  0  0  0  0  0  0
  -22.2520   -0.0890   -0.0180 H   0  0  0  0  0  0  0  0  0  0  0  0
  -22.9260   -0.9250   -3.4890 H   0  0  0  0  0  0  0  0  0  0  0  0
  -23.0520   -1.4450   -1.8110 H   0  0  0  0  0  0  0  0  0  0  0  0
  -21.8030   -0.2740   -2.2980 H   0  0  0  0  0  0  0  0  0  0  0  0
  -27.3520    3.4210   -1.2240 H   0  0  0  0  0  0  0  0  0  0  0  0
  -27.3190    1.6880   -0.8190 H   0  0  0  0  0  0  0  0  0  0  0  0
  -27.5580    2.2110   -2.4740 H   0  0  0  0  0  0  0  0  0  0  0  0
  -24.6830    5.1380    1.4300 H   0  0  0  0  0  0  0  0  0  0  0  0
  -24.9150    5.1220   -0.3270 H   0  0  0  0  0  0  0  0  0  0  0  0
  -26.2290    5.6300    0.7350 H   0  0  0  0  0  0  0  0  0  0  0  0
  -24.1650    2.8100    2.4670 H   0  0  0  0  0  0  0  0  0  0  0  0
  -19.7050    0.1460    3.7470 H   0  0  0  0  0  0  0  0  0  0  0  0
  -17.8760    0.5420    2.1640 H   0  0  0  0  0  0  0  0  0  0  0  0
  -16.9650    2.7720    1.7130 H   0  0  0  0  0  0  0  0  0  0  0  0
  -18.7940    2.2300    0.1700 H   0  0  0  0  0  0  0  0  0  0  0  0
  -20.7140    3.4220    2.2320 H   0  0  0  0  0  0  0  0  0  0  0  0
  -21.1170    2.8140    0.6500 H   0  0  0  0  0  0  0  0  0  0  0  0
  -18.9220    3.9200    0.5890 H   0  0  0  0  0  0  0  0  0  0  0  0
  -18.0720    3.5080    2.8440 H   0  0  0  0  0  0  0  0  0  0  0  0
  -17.4960    1.2890    3.6940 H   0  0  0  0  0  0  0  0  0  0  0  0
  -19.8830    1.8520    4.0660 H   0  0  0  0  0  0  0  0  0  0  0  0
  -20.3400    0.5310    1.3370 H   0  0  0  0  0  0  0  0  0  0  0  0
  -22.3040    1.6460    3.3310 H   0  0  0  0  0  0  0  0  0  0  0  0
  -22.5220   -2.7070    4.2770 H   0  0  0  0  0  0  0  0  0  0  0  0
  -25.5490   -2.4160   -0.2680 H   0  0  0  0  0  0  0  0  0  0  0  0
  -26.4840   -4.2070   -1.4470 H   0  0  0  0  0  0  0  0  0  0  0  0
  -28.1370   -5.9480    1.2070 H   0  0  0  0  0  0  0  0  0  0  0  0
  -27.8210   -8.3220    1.6670 H   0  0  0  0  0  0  0  0  0  0  0  0
  -26.3840  -10.1030    2.6420 H   0  0  0  0  0  0  0  0  0  0  0  0
  -27.5540  -10.6440    1.4170 H   0  0  0  0  0  0  0  0  0  0  0  0
  -26.1000  -11.5870    1.7340 H   0  0  0  0  0  0  0  0  0  0  0  0
  -22.1790   -8.5780   -1.7350 H   0  0  0  0  0  0  0  0  0  0  0  0
  -22.5370   -7.0810   -0.8790 H   0  0  0  0  0  0  0  0  0  0  0  0
  -23.3210   -7.4340   -2.4370 H   0  0  0  0  0  0  0  0  0  0  0  0
  -24.6100   -5.8910   -1.2060 H   0  0  0  0  0  0  0  0  0  0  0  0
  -27.6610   -4.0330   -0.1910 H   0  0  0  0  0  0  0  0  0  0  0  0
  -24.6730   -3.7690    0.3900 H   0  0  0  0  0  0  0  0  0  0  0  0
  -26.5310   -3.8270    2.2380 H   0  0  0  0  0  0  0  0  0  0  0  0
  -26.0450   -0.2360    1.2280 H   0  0  0  0  0  0  0  0  0  0  0  0
  -27.8750    1.4090    1.3970 H   0  0  0  0  0  0  0  0  0  0  0  0
  -32.0580   -0.1830    2.1970 H   0  0  0  0  0  0  0  0  0  0  0  0
  -32.8470    2.5090    0.7790 H   0  0  0  0  0  0  0  0  0  0  0  0
  -34.6280    5.2810    2.7300 H   0  0  0  0  0  0  0  0  0  0  0  0
  -36.3660    3.4160    2.7470 H   0  0  0  0  0  0  0  0  0  0  0  0
  -38.2500    4.3450    0.5290 H   0  0  0  0  0  0  0  0  0  0  0  0
  -39.4020    6.3020    1.2680 H   0  0  0  0  0  0  0  0  0  0  0  0
  -38.2300    6.7380    0.0240 H   0  0  0  0  0  0  0  0  0  0  0  0
  -39.5500    7.8260    0.4070 H   0  0  0  0  0  0  0  0  0  0  0  0
  -42.9260    6.3910   -2.2550 H   0  0  0  0  0  0  0  0  0  0  0  0
  -38.8670    3.4030   -3.5640 H   0  0  0  0  0  0  0  0  0  0  0  0
  -36.9230    1.9520   -3.5600 H   0  0  0  0  0  0  0  0  0  0  0  0
  -34.3020    2.0380   -1.2470 H   0  0  0  0  0  0  0  0  0  0  0  0
  -34.4350    1.2090   -3.4570 H   0  0  0  0  0  0  0  0  0  0  0  0
  -34.3330   -0.4640   -4.9330 H   0  0  0  0  0  0  0  0  0  0  0  0
  -37.3260   -0.7380   -4.5560 H   0  0  0  0  0  0  0  0  0  0  0  0
  -37.6210   -1.8860   -6.6210 H   0  0  0  0  0  0  0  0  0  0  0  0
  -36.8100   -3.4060   -4.9190 H   0  0  0  0  0  0  0  0  0  0  0  0
  -33.2970   -7.3580   -3.9420 H   0  0  0  0  0  0  0  0  0  0  0  0
  -34.7440   -7.6830   -3.0050 H   0  0  0  0  0  0  0  0  0  0  0  0
  -34.8770   -7.1500   -4.6750 H   0  0  0  0  0  0  0  0  0  0  0  0
  -32.4940   -5.7670   -2.0940 H   0  0  0  0  0  0  0  0  0  0  0  0
  -33.5100   -4.4280   -1.5750 H   0  0  0  0  0  0  0  0  0  0  0  0
  -33.9580   -6.0770   -1.1840 H   0  0  0  0  0  0  0  0  0  0  0  0
  -35.9300   -4.1790   -2.5850 H   0  0  0  0  0  0  0  0  0  0  0  0
  -36.4540   -5.3320   -3.8180 H   0  0  0  0  0  0  0  0  0  0  0  0
  -36.2000   -5.8550   -2.1700 H   0  0  0  0  0  0  0  0  0  0  0  0
  -34.2220   -4.8960   -5.3680 H   0  0  0  0  0  0  0  0  0  0  0  0
  -31.7330   -4.4560   -3.8410 H   0  0  0  0  0  0  0  0  0  0  0  0
  2  1  1  0  0  0  0
  3  2  1  0  0  0  0
  3 96  1  0  0  0  0
  4 97  1  0  0  0  0
  4  3  1  0  0  0  0
  4  2  1  0  0  0  0
  5  2  1  0  0  0  0
  5  6  1  0  0  0  0
  6  7  1  0  0  0  0
  6184  1  0  0  0  0
  7183  1  6  0  0  0
  7  8  1  0  0  0  0
  7 91  1  0  0  0  0
  8 90  2  0  0  0  0
  9 14  1  0  0  0  0
  9  8  1  0  0  0  0
 10173  1  0  0  0  0
 10  9  1  0  0  0  0
 11172  1  6  0  0  0
 11 10  1  0  0  0  0
 11 13  1  0  0  0  0
 12 11  1  0  0  0  0
 13171  1  0  0  0  0
 13 14  1  0  0  0  0
 14170  1  6  0  0  0
 14 15  1  0  0  0  0
 15 16  1  0  0  0  0
 15 89  2  0  0  0  0
 16 17  1  0  0  0  0
 17168  1  0  0  0  0
 17103  1  0  0  0  0
 18 17  1  0  0  0  0
 18 19  1  0  0  0  0
 19 20  1  0  0  0  0
 20 21  1  0  0  0  0
 21 22  1  0  0  0  0
 21160  1  0  0  0  0
 22 23  1  0  0  0  0
 22159  1  0  0  0  0
 23 24  1  0  0  0  0
 24 25  2  0  0  0  0
 26 25  1  0  0  0  0
 27 26  1  0  0  0  0
 27106  1  0  0  0  0
 28 27  1  0  0  0  0
 29 28  1  0  0  0  0
 29 30  1  0  0  0  0
 30107  1  0  0  0  0
 31 30  2  0  0  0  0
 31108  1  0  0  0  0
 32 33  1  0  0  0  0
 32 31  1  0  0  0  0
 33154  1  1  0  0  0
 33 34  1  0  0  0  0
 34 35  1  0  0  0  0
 35 63  2  0  0  0  0
 35 36  1  0  0  0  0
 36140  1  6  0  0  0
 36 41  1  0  0  0  0
 37 38  1  0  0  0  0
 37 36  1  0  0  0  0
 38 39  1  0  0  0  0
 39115  1  0  0  0  0
 39 40  1  0  0  0  0
 39110  1  0  0  0  0
 40111  1  0  0  0  0
 41113  1  0  0  0  0
 41 40  1  0  0  0  0
 41112  1  0  0  0  0
 42 37  1  0  0  0  0
 43 42  1  0  0  0  0
 43139  1  1  0  0  0
 44 55  1  0  0  0  0
 44 43  1  0  0  0  0
 45 44  2  0  0  0  0
 46 49  2  0  0  0  0
 46 45  1  0  0  0  0
 47 46  1  0  0  0  0
 48120  1  0  0  0  0
 48 47  1  0  0  0  0
 48119  1  0  0  0  0
 49 52  1  0  0  0  0
 50 51  1  0  0  0  0
 50 49  1  0  0  0  0
 51121  1  0  0  0  0
 51122  1  0  0  0  0
 52 53  1  0  0  0  0
 52 55  2  0  0  0  0
 54 53  1  0  0  0  0
 54126  1  0  0  0  0
 54124  1  0  0  0  0
 55127  1  0  0  0  0
 56 43  1  0  0  0  0
 56 57  1  0  0  0  0
 57128  1  0  0  0  0
 57137  1  0  0  0  0
 58 57  1  0  0  0  0
 58136  1  0  0  0  0
 59 58  1  0  0  0  0
 59135  1  0  0  0  0
 60 61  1  0  0  0  0
 60 59  1  0  0  0  0
 61 56  1  0  0  0  0
 61132  1  0  0  0  0
 62 42  2  0  0  0  0
 64153  1  0  0  0  0
 64 33  1  0  0  0  0
 65152  1  0  0  0  0
 65 66  1  0  0  0  0
 65 64  1  0  0  0  0
 66 67  1  0  0  0  0
 67 68  2  0  0  0  0
 67143  1  0  0  0  0
 68144  1  0  0  0  0
 69 70  1  0  0  0  0
 69 68  1  0  0  0  0
 70 71  1  0  0  0  0
 71147  1  0  0  0  0
 71145  1  0  0  0  0
 72 69  2  0  0  0  0
 73 72  1  0  0  0  0
 74149  1  0  0  0  0
 74 73  1  0  0  0  0
 75 72  1  0  0  0  0
 75 66  2  0  0  0  0
 76 77  1  0  0  0  0
 76 32  2  0  0  0  0
 77 29  2  0  0  0  0
 78 23  1  0  0  0  0
 78 26  2  0  0  0  0
 79 19  2  0  0  0  0
 79161  1  0  0  0  0
 80 81  1  0  0  0  0
 80 79  1  0  0  0  0
 81 82  2  0  0  0  0
 82 83  1  0  0  0  0
 83164  1  0  0  0  0
 83162  1  0  0  0  0
 84 82  1  0  0  0  0
 85 84  2  0  0  0  0
 86 85  1  0  0  0  0
 86 81  1  0  0  0  0
 87 88  1  0  0  0  0
 87 80  2  0  0  0  0
 88 18  2  0  0  0  0
 91 94  1  0  0  0  0
 91 93  1  0  0  0  0
 92 91  1  0  0  0  0
 92175  1  0  0  0  0
 93178  1  0  0  0  0
 93179  1  0  0  0  0
 94180  1  0  0  0  0
 94182  1  0  0  0  0
 95  5  2  0  0  0  0
 98  4  1  0  0  0  0
 99  3  1  0  0  0  0
100 10  1  0  0  0  0
101 12  1  0  0  0  0
102 13  1  0  0  0  0
104 21  1  0  0  0  0
105 22  1  0  0  0  0
109 38  1  0  0  0  0
114 40  1  0  0  0  0
116 38  1  0  0  0  0
117 45  1  0  0  0  0
118 48  1  0  0  0  0
123 51  1  0  0  0  0
125 54  1  0  0  0  0
129 58  1  0  0  0  0
130 59  1  0  0  0  0
131 60  1  0  0  0  0
133 61  1  0  0  0  0
134 60  1  0  0  0  0
138 56  1  0  0  0  0
141 64  1  0  0  0  0
142 65  1  0  0  0  0
146 71  1  0  0  0  0
148 74  1  0  0  0  0
150 74  1  0  0  0  0
151 75  1  0  0  0  0
155 76  1  0  0  0  0
156 77  1  0  0  0  0
157 27  1  0  0  0  0
158 78  1  0  0  0  0
163 83  1  0  0  0  0
165 85  1  0  0  0  0
166 87  1  0  0  0  0
167 88  1  0  0  0  0
169 16  1  0  0  0  0
174 92  1  0  0  0  0
176 92  1  0  0  0  0
177 93  1  0  0  0  0
181 94  1  0  0  0  0
M  END
$$$$
