ref_ligand.pdb
 OpenBabel04192619173D

 62 69  0  0  1  0  0  0  0  0999 V2000
  -56.1250  -49.3360   -6.7310 O   0  0  0  0  0  0  0  0  0  0  0  0
  -55.4550  -49.2290   -5.6430 C   0  0  0  0  0  0  0  0  0  0  0  0
  -56.0130  -49.4250   -4.3380 N   0  0  0  0  0  0  0  0  0  0  0  0
  -55.0140  -49.2580   -3.3470 C   0  0  0  0  0  0  0  0  0  0  0  0
  -53.7660  -48.9460   -4.0620 C   0  0  0  0  0  0  0  0  0  0  0  0
  -52.4740  -48.7510   -3.5710 C   0  0  0  0  0  0  0  0  0  0  0  0
  -51.4600  -48.5290   -4.4570 C   0  0  0  0  0  0  0  0  0  0  0  0
  -51.7680  -48.4910   -5.8400 C   0  0  0  0  0  0  0  0  0  0  0  0
  -53.0250  -48.6700   -6.2830 C   0  0  0  0  0  0  0  0  0  0  0  0
  -53.3020  -48.1600   -7.6900 N   0  0  0  0  0  0  0  0  0  0  0  0
  -52.1350  -47.1400   -7.9820 C   0  0  0  0  0  0  0  0  0  0  0  0
  -52.1870  -46.0960   -6.9530 C   0  0  0  0  0  0  0  0  0  0  0  0
  -51.3840  -45.0750   -6.6440 N   0  0  0  0  0  0  0  0  0  0  0  0
  -50.1030  -45.2070   -5.9870 C   0  0  0  0  0  0  0  0  0  0  0  0
  -50.0700  -44.4170   -4.6530 C   0  0  0  0  0  0  0  0  0  0  0  0
  -50.0480  -42.9940   -4.9060 N   0  0  0  0  0  0  0  0  0  0  0  0
  -49.1310  -42.2270   -4.3040 C   0  0  0  0  0  0  0  0  0  0  0  0
  -49.0060  -41.7110   -2.9450 C   0  0  0  0  0  0  0  0  0  0  0  0
  -47.6960  -41.0250   -2.6000 C   0  0  0  0  0  0  0  0  0  0  0  0
  -47.7850  -40.7120   -1.1760 N   0  0  0  0  0  0  0  0  0  0  0  0
  -46.4050  -41.1050   -0.5800 C   0  0  2  0  0  0  0  0  0  0  0  0
  -45.6030  -39.8470   -1.3070 C   0  0  0  0  0  0  0  0  0  0  0  0
  -44.0930  -40.1440   -1.1010 C   0  0  0  0  0  0  0  0  0  0  0  0
  -43.7140  -41.2800   -2.1370 C   0  0  2  0  0  0  0  0  0  0  0  0
  -44.2660  -42.4150   -1.0540 C   0  0  0  0  0  0  0  0  0  0  0  0
  -45.8070  -42.2490   -1.4860 C   0  0  0  0  0  0  0  0  0  0  0  0
  -42.2660  -41.5410   -2.0130 N   0  0  0  0  0  0  0  0  0  0  0  0
  -41.1880  -40.7390   -2.0140 C   0  0  0  0  0  0  0  0  0  0  0  0
  -41.1720  -39.4330   -2.0110 N   0  0  0  0  0  0  0  0  0  0  0  0
  -40.1510  -38.6510   -2.1940 C   0  0  0  0  0  0  0  0  0  0  0  0
  -40.2450  -37.2780   -2.1630 N   0  0  0  0  0  0  0  0  0  0  0  0
  -41.2720  -36.4230   -1.7820 C   0  0  0  0  0  0  0  0  0  0  0  0
  -41.1310  -35.0680   -2.0010 C   0  0  0  0  0  0  0  0  0  0  0  0
  -39.7450  -34.3720   -2.8210 S   0  0  0  0  0  0  0  0  0  0  0  0
  -39.4690  -35.2390   -4.0640 O   0  0  0  0  0  0  0  0  0  0  0  0
  -38.3690  -34.5270   -1.7110 C   0  0  0  0  0  0  0  0  0  0  0  0
  -40.0870  -32.9620   -3.1520 O   0  0  0  0  0  0  0  0  0  0  0  0
  -42.1130  -34.2020   -1.5040 C   0  0  0  0  0  0  0  0  0  0  0  0
  -43.2060  -34.6360   -0.8100 C   0  0  0  0  0  0  0  0  0  0  0  0
  -44.1980  -33.7250   -0.2110 C   0  0  0  0  0  0  0  0  0  0  0  0
  -45.4050  -34.1470    0.3020 N   0  0  0  0  0  0  0  0  0  0  0  0
  -46.1180  -33.1650    0.7550 C   0  0  0  0  0  0  0  0  0  0  0  0
  -45.6660  -31.9010    0.6990 C   0  0  0  0  0  0  0  0  0  0  0  0
  -44.0890  -32.0080   -0.0520 S   0  0  0  0  0  0  0  0  0  0  0  0
  -43.3570  -35.9770   -0.5880 C   0  0  0  0  0  0  0  0  0  0  0  0
  -42.3730  -36.8070   -1.0920 C   0  0  0  0  0  0  0  0  0  0  0  0
  -38.8950  -39.2360   -2.4300 C   0  0  0  0  0  0  0  0  0  0  0  0
  -37.4770  -38.2520   -2.6580 Cl  0  0  0  0  0  0  0  0  0  0  0  0
  -38.8780  -40.6140   -2.4360 C   0  0  0  0  0  0  0  0  0  0  0  0
  -39.9760  -41.3690   -2.2360 N   0  0  0  0  0  0  0  0  0  0  0  0
  -50.6080  -42.8190   -6.2020 C   0  0  0  0  0  0  0  0  0  0  0  0
  -51.8460  -43.7240   -6.4160 C   0  0  0  0  0  0  0  0  0  0  0  0
  -54.0640  -48.9230   -5.4590 C   0  0  0  0  0  0  0  0  0  0  0  0
  -55.1260  -49.3470   -2.1150 O   0  0  0  0  0  0  0  0  0  0  0  0
  -57.3970  -49.7460   -4.1420 C   0  0  1  0  0  0  0  0  0  0  0  0
  -58.3130  -48.6210   -4.4720 C   0  0  0  0  0  0  0  0  0  0  0  0
  -59.0780  -48.6970   -5.7310 C   0  0  0  0  0  0  0  0  0  0  0  0
  -59.6760  -50.0060   -6.0130 C   0  0  0  0  0  0  0  0  0  0  0  0
  -58.9040  -51.1560   -5.6750 N   0  0  0  0  0  0  0  0  0  0  0  0
  -57.7010  -50.9150   -4.9600 C   0  0  0  0  0  0  0  0  0  0  0  0
  -56.9030  -51.8420   -5.1070 O   0  0  0  0  0  0  0  0  0  0  0  0
  -60.7550  -50.2480   -6.5020 O   0  0  0  0  0  0  0  0  0  0  0  0
  1  2  2  0  0  0  0
  2 53  1  0  0  0  0
  2  3  1  0  0  0  0
  3 55  1  0  0  0  0
  3  4  1  0  0  0  0
  4 54  2  0  0  0  0
  5  6  1  0  0  0  0
  5  4  1  0  0  0  0
  7  6  2  0  0  0  0
  8  7  1  0  0  0  0
  9  8  2  0  0  0  0
  9 53  1  0  0  0  0
 10  9  1  0  0  0  0
 11 10  1  0  0  0  0
 11 12  1  0  0  0  0
 12 13  1  0  0  0  0
 13 52  1  0  0  0  0
 13 14  1  0  0  0  0
 14 15  1  0  0  0  0
 16 15  1  0  0  0  0
 16 17  1  0  0  0  0
 17 18  2  0  0  0  0
 18 19  1  0  0  0  0
 19 20  1  0  0  0  0
 21 20  1  6  0  0  0
 22 23  1  0  0  0  0
 22 21  1  0  0  0  0
 24 27  1  1  0  0  0
 24 23  1  0  0  0  0
 24 25  1  0  0  0  0
 26 25  1  0  0  0  0
 26 21  1  0  0  0  0
 28 27  1  0  0  0  0
 28 29  1  0  0  0  0
 30 31  1  0  0  0  0
 30 29  2  0  0  0  0
 31 32  1  0  0  0  0
 32 46  1  0  0  0  0
 33 32  2  0  0  0  0
 33 38  1  0  0  0  0
 34 33  1  0  0  0  0
 34 36  1  0  0  0  0
 35 34  2  0  0  0  0
 37 34  2  0  0  0  0
 38 39  2  0  0  0  0
 39 45  1  0  0  0  0
 39 40  1  0  0  0  0
 40 44  1  0  0  0  0
 40 41  2  0  0  0  0
 41 42  1  0  0  0  0
 43 42  2  0  0  0  0
 44 43  1  0  0  0  0
 46 45  2  0  0  0  0
 47 30  1  0  0  0  0
 48 47  1  0  0  0  0
 49 47  2  0  0  0  0
 49 50  1  0  0  0  0
 50 28  2  0  0  0  0
 51 16  1  0  0  0  0
 52 51  1  0  0  0  0
 53  5  2  0  0  0  0
 55 56  1  6  0  0  0
 57 56  1  0  0  0  0
 58 57  1  0  0  0  0
 58 59  1  0  0  0  0
 59 60  1  0  0  0  0
 60 55  1  0  0  0  0
 61 60  2  0  0  0  0
 62 58  2  0  0  0  0
M  END
>  <HETNAM>
     PTC X   1  PTC                                                       

>  <PTC_1>
-29.0563 11.3682 20.4031 0.21427 6.38631 0.04125 -1.6491 0 0 0 -1.72159 0 0 0 0 0 0 0 0 5.9862

$$$$
