ref_ligand.pdb
 OpenBabel04202605173D

138144  0  0  1  0  0  0  0  0999 V2000
  -11.6540    7.3630   15.5460 O   0  0  0  0  0  0  0  0  0  0  0  0
  -12.1960    8.2550   14.9010 C   0  0  0  0  0  0  0  0  0  0  0  0
  -12.4650    8.0980   13.6030 N   0  0  0  0  0  0  0  0  0  0  0  0
  -12.4020    9.0580   12.5000 C   0  0  0  0  0  0  0  0  0  0  0  0
  -12.1210    8.3250   11.1780 C   0  0  0  0  0  0  0  0  0  0  0  0
  -10.6670    7.8620   11.0010 C   0  0  0  0  0  0  0  0  0  0  0  0
  -10.5210    6.8640    9.8390 C   0  0  0  0  0  0  0  0  0  0  0  0
   -9.0870    6.7810    9.2920 C   0  0  0  0  0  0  0  0  0  0  0  0
   -8.8280    5.5230    8.4320 C   0  0  0  0  0  0  0  0  0  0  0  0
   -7.9880    4.4940    9.1850 C   0  0  0  0  0  0  0  0  0  0  0  0
   -8.5890    3.8310   10.1800 N   0  0  0  0  0  0  0  0  0  0  0  0
   -7.8880    2.9450   11.0960 C   0  0  2  0  0  0  0  0  0  0  0  0
   -8.0910    1.5110   10.5830 C   0  0  0  0  0  0  0  0  0  0  0  0
   -7.0480    0.6550   10.5760 N   0  0  0  0  0  0  0  0  0  0  0  0
   -7.3060   -0.7750   10.3570 C   0  0  2  0  0  0  0  0  0  0  0  0
   -8.2180   -1.4500   11.3810 C   0  0  0  0  0  0  0  0  0  0  0  0
   -8.7620   -2.5980   10.9820 N   0  0  0  0  0  0  0  0  0  0  0  0
   -9.7240   -3.3370   11.7870 C   0  0  0  0  0  0  0  0  0  0  0  0
   -9.1560   -4.6450   12.2680 C   0  0  0  0  0  0  0  0  0  0  0  0
   -8.0970   -5.2470   11.6030 C   0  0  0  0  0  0  0  0  0  0  0  0
   -7.5440   -6.4290   12.0610 C   0  0  0  0  0  0  0  0  0  0  0  0
   -8.0410   -7.0520   13.2050 C   0  0  0  0  0  0  0  0  0  0  0  0
   -7.4370   -8.3150   13.7050 C   0  0  0  0  0  0  0  0  0  0  0  0
   -7.9690   -9.3670   14.4230 C   0  0  0  0  0  0  0  0  0  0  0  0
   -9.3870   -9.5480   14.8590 C   0  0  0  0  0  0  0  0  0  0  0  0
   -7.0650  -10.3570   14.7580 N   0  0  0  0  0  0  0  0  0  0  0  0
   -5.8850  -10.0710   14.3050 C   0  0  0  0  0  0  0  0  0  0  0  0
   -5.7400   -8.5990   13.4310 S   0  0  0  0  0  0  0  0  0  0  0  0
   -9.1040   -6.4400   13.8770 C   0  0  0  0  0  0  0  0  0  0  0  0
   -9.6520   -5.2590   13.4070 C   0  0  0  0  0  0  0  0  0  0  0  0
   -8.3540   -0.9850   12.5110 O   0  0  0  0  0  0  0  0  0  0  0  0
   -5.9020   -1.3950   10.3550 C   0  0  0  0  0  0  0  0  0  0  0  0
   -4.9900   -0.2450    9.9500 C   0  0  1  0  0  0  0  0  0  0  0  0
   -5.0170   -0.0460    8.5310 O   0  0  0  0  0  0  0  0  0  0  0  0
   -5.6100    0.9410   10.6660 C   0  0  0  0  0  0  0  0  0  0  0  0
   -9.2130    1.1810   10.1790 O   0  0  0  0  0  0  0  0  0  0  0  0
   -8.3470    3.1660   12.5690 C   0  0  0  0  0  0  0  0  0  0  0  0
   -8.6360    4.6570   12.7670 C   0  0  0  0  0  0  0  0  0  0  0  0
   -7.2330    2.7470   13.5320 C   0  0  0  0  0  0  0  0  0  0  0  0
   -9.6100    2.3600   12.9020 C   0  0  0  0  0  0  0  0  0  0  0  0
   -6.8030    4.3390    8.8970 O   0  0  0  0  0  0  0  0  0  0  0  0
  -12.7070    9.4990   15.5630 C   0  0  0  0  0  0  0  0  0  0  0  0
  -13.7230   10.2710   15.0100 C   0  0  0  0  0  0  0  0  0  0  0  0
  -14.1930   11.3960   15.6640 C   0  0  0  0  0  0  0  0  0  0  0  0
  -13.6820   11.7850   16.9010 C   0  0  0  0  0  0  0  0  0  0  0  0
  -14.2150   12.9720   17.6250 C   0  0  0  0  0  0  0  0  0  0  0  0
  -15.2800   13.7220   17.1140 C   0  0  0  0  0  0  0  0  0  0  0  0
  -15.7100   14.8850   17.7300 C   0  0  0  0  0  0  0  0  0  0  0  0
  -15.0870   15.3270   18.8920 C   0  0  0  0  0  0  0  0  0  0  0  0
  -15.4220   16.5740   19.4790 N   0  0  0  0  0  0  0  0  0  0  0  0
  -16.7130   16.7900   20.1340 C   0  0  0  0  0  0  0  0  0  0  0  0
  -17.1860   18.2130   19.9190 C   0  0  0  0  0  0  0  0  0  0  0  0
  -16.1670   19.1670   20.3490 N   0  0  0  0  0  0  0  0  0  0  0  0
  -16.6530   20.5380   20.2010 C   0  0  0  0  0  0  0  0  0  0  0  0
  -14.9590   18.9630   19.5630 C   0  0  0  0  0  0  0  0  0  0  0  0
  -14.4070   17.5820   19.7860 C   0  0  0  0  0  0  0  0  0  0  0  0
  -14.0470   14.5620   19.4420 C   0  0  0  0  0  0  0  0  0  0  0  0
  -13.3540   15.0020   20.5900 N   0  0  0  0  0  0  0  0  0  0  0  0
  -12.0150   15.2450   20.6410 C   0  0  0  0  0  0  0  0  0  0  0  0
  -11.4390   15.4190   22.0020 C   0  0  0  0  0  0  0  0  0  0  0  0
  -10.6520   16.5640   22.4560 C   0  0  0  0  0  0  0  0  0  0  0  0
  -10.3160   17.6670   21.4980 C   0  0  0  0  0  0  0  0  0  0  0  0
   -9.8350   18.7480   22.1110 F   0  0  0  0  0  0  0  0  0  0  0  0
  -11.3460   18.0840   20.8070 F   0  0  0  0  0  0  0  0  0  0  0  0
   -9.4900   17.2780   20.5450 F   0  0  0  0  0  0  0  0  0  0  0  0
  -10.2120   16.5920   23.7340 C   0  0  0  0  0  0  0  0  0  0  0  0
  -11.6800   14.4200   22.9000 C   0  0  0  0  0  0  0  0  0  0  0  0
  -11.2220   14.4870   24.1750 N   0  0  0  0  0  0  0  0  0  0  0  0
  -10.4830   15.5250   24.6680 C   0  0  0  0  0  0  0  0  0  0  0  0
  -10.1010   15.5160   25.8310 O   0  0  0  0  0  0  0  0  0  0  0  0
  -11.3320   15.2950   19.6220 O   0  0  0  0  0  0  0  0  0  0  0  0
  -13.6240   13.3970   18.8130 C   0  0  0  0  0  0  0  0  0  0  0  0
  -12.6610   11.0090   17.4450 C   0  0  0  0  0  0  0  0  0  0  0  0
  -12.1790    9.8890   16.7890 C   0  0  0  0  0  0  0  0  0  0  0  0
  -13.3560    9.5610   12.3620 H   0  0  0  0  0  0  0  0  0  0  0  0
  -12.8000    7.4750   11.0880 H   0  0  0  0  0  0  0  0  0  0  0  0
  -10.0420    8.7390   10.8240 H   0  0  0  0  0  0  0  0  0  0  0  0
   -9.7550    5.0710    8.0800 H   0  0  0  0  0  0  0  0  0  0  0  0
  -10.0840   -2.7560   12.6390 H   0  0  0  0  0  0  0  0  0  0  0  0
   -7.6730   -4.8140   10.7100 H   0  0  0  0  0  0  0  0  0  0  0  0
   -6.7250   -6.8660   11.5090 H   0  0  0  0  0  0  0  0  0  0  0  0
  -10.0840   -9.1760   14.1090 H   0  0  0  0  0  0  0  0  0  0  0  0
   -9.6230  -10.6000   15.0230 H   0  0  0  0  0  0  0  0  0  0  0  0
   -9.5810   -9.0220   15.7930 H   0  0  0  0  0  0  0  0  0  0  0  0
   -5.0640  -10.7490   14.4840 H   0  0  0  0  0  0  0  0  0  0  0  0
   -9.4990   -6.8690   14.7840 H   0  0  0  0  0  0  0  0  0  0  0  0
  -10.4650   -4.8020   13.9530 H   0  0  0  0  0  0  0  0  0  0  0  0
  -10.5990   -3.5460   11.1720 H   0  0  0  0  0  0  0  0  0  0  0  0
   -8.5830   -2.9170   10.0440 H   0  0  0  0  0  0  0  0  0  0  0  0
   -5.6300   -1.7360   11.3560 H   0  0  0  0  0  0  0  0  0  0  0  0
   -4.5630    0.7570    8.3180 H   0  0  0  0  0  0  0  0  0  0  0  0
   -5.3150    0.9710   11.7160 H   0  0  0  0  0  0  0  0  0  0  0  0
   -5.3260    1.8840   10.1970 H   0  0  0  0  0  0  0  0  0  0  0  0
   -3.9580   -0.4130   10.2640 H   0  0  0  0  0  0  0  0  0  0  0  0
   -5.8210   -2.2520    9.6850 H   0  0  0  0  0  0  0  0  0  0  0  0
   -7.7410   -0.8770    9.3600 H   0  0  0  0  0  0  0  0  0  0  0  0
   -9.5410    4.9830   12.2550 H   0  0  0  0  0  0  0  0  0  0  0  0
   -8.7890    4.8880   13.8230 H   0  0  0  0  0  0  0  0  0  0  0  0
   -7.8090    5.2800   12.4240 H   0  0  0  0  0  0  0  0  0  0  0  0
   -7.5210    2.9150   14.5710 H   0  0  0  0  0  0  0  0  0  0  0  0
   -7.0000    1.6850   13.4350 H   0  0  0  0  0  0  0  0  0  0  0  0
   -6.3130    3.3060   13.3570 H   0  0  0  0  0  0  0  0  0  0  0  0
   -9.4370    1.2850   12.9360 H   0  0  0  0  0  0  0  0  0  0  0  0
   -9.9940    2.6320   13.8860 H   0  0  0  0  0  0  0  0  0  0  0  0
  -10.4130    2.5460   12.1880 H   0  0  0  0  0  0  0  0  0  0  0  0
   -6.8310    3.2040   11.0630 H   0  0  0  0  0  0  0  0  0  0  0  0
   -9.5830    3.9190   10.3120 H   0  0  0  0  0  0  0  0  0  0  0  0
   -8.2730    5.8060    7.5370 H   0  0  0  0  0  0  0  0  0  0  0  0
  -10.2930    7.4030   11.9170 H   0  0  0  0  0  0  0  0  0  0  0  0
  -12.3720    8.9870   10.3480 H   0  0  0  0  0  0  0  0  0  0  0  0
  -11.6520    9.8280   12.6920 H   0  0  0  0  0  0  0  0  0  0  0  0
  -12.2910    7.1460   13.3200 H   0  0  0  0  0  0  0  0  0  0  0  0
  -14.2430    9.9780   14.1170 H   0  0  0  0  0  0  0  0  0  0  0  0
  -14.9900   11.9310   15.1760 H   0  0  0  0  0  0  0  0  0  0  0  0
  -15.7940   13.4510   16.2080 H   0  0  0  0  0  0  0  0  0  0  0  0
  -16.5050   15.4680   17.2900 H   0  0  0  0  0  0  0  0  0  0  0  0
  -17.4550   16.0880   19.7500 H   0  0  0  0  0  0  0  0  0  0  0  0
  -17.4270   18.3690   18.8660 H   0  0  0  0  0  0  0  0  0  0  0  0
  -15.9010   21.2510   20.5430 H   0  0  0  0  0  0  0  0  0  0  0  0
  -16.8910   20.7690   19.1610 H   0  0  0  0  0  0  0  0  0  0  0  0
  -17.5500   20.6960   20.8000 H   0  0  0  0  0  0  0  0  0  0  0  0
  -14.2050   19.6980   19.8490 H   0  0  0  0  0  0  0  0  0  0  0  0
  -13.5250   17.4350   19.1600 H   0  0  0  0  0  0  0  0  0  0  0  0
  -14.0920   17.4920   20.8250 H   0  0  0  0  0  0  0  0  0  0  0  0
  -15.1630   19.1180   18.5020 H   0  0  0  0  0  0  0  0  0  0  0  0
  -18.1060   18.3760   20.4830 H   0  0  0  0  0  0  0  0  0  0  0  0
  -16.6100   16.5890   21.2010 H   0  0  0  0  0  0  0  0  0  0  0  0
   -9.6170   17.4230   24.0830 H   0  0  0  0  0  0  0  0  0  0  0  0
  -12.2410   13.5220   22.6800 H   0  0  0  0  0  0  0  0  0  0  0  0
  -11.4190   13.7220   24.8040 H   0  0  0  0  0  0  0  0  0  0  0  0
  -13.9210   15.2640   21.3800 H   0  0  0  0  0  0  0  0  0  0  0  0
  -12.7910   12.8860   19.2590 H   0  0  0  0  0  0  0  0  0  0  0  0
  -12.2030   11.2180   18.3950 H   0  0  0  0  0  0  0  0  0  0  0  0
  -11.3940    9.3030   17.2460 H   0  0  0  0  0  0  0  0  0  0  0  0
  -10.8580    5.8840   10.1770 H   0  0  0  0  0  0  0  0  0  0  0  0
  -11.1840    7.1450    9.0180 H   0  0  0  0  0  0  0  0  0  0  0  0
   -8.8840    7.6720    8.6960 H   0  0  0  0  0  0  0  0  0  0  0  0
   -8.3760    6.8240   10.1200 H   0  0  0  0  0  0  0  0  0  0  0  0
  2  1  2  0  0  0  0
  2 42  1  0  0  0  0
  3  2  1  0  0  0  0
  4111  1  0  0  0  0
  4  3  1  0  0  0  0
  5  4  1  0  0  0  0
  6  5  1  0  0  0  0
  6109  1  0  0  0  0
  7135  1  0  0  0  0
  7  6  1  0  0  0  0
  8  7  1  0  0  0  0
  8138  1  0  0  0  0
  9 10  1  0  0  0  0
  9  8  1  0  0  0  0
 10 11  1  0  0  0  0
 11107  1  0  0  0  0
 11 12  1  0  0  0  0
 12106  1  6  0  0  0
 12 37  1  0  0  0  0
 13 12  1  0  0  0  0
 14 13  1  0  0  0  0
 14 35  1  0  0  0  0
 15 96  1  6  0  0  0
 15 14  1  0  0  0  0
 15 16  1  0  0  0  0
 16 31  2  0  0  0  0
 17 16  1  0  0  0  0
 17 18  1  0  0  0  0
 18 19  1  0  0  0  0
 18 79  1  0  0  0  0
 19 30  1  0  0  0  0
 20 21  1  0  0  0  0
 20 19  2  0  0  0  0
 21 22  2  0  0  0  0
 22 23  1  0  0  0  0
 22 29  1  0  0  0  0
 23 24  2  0  0  0  0
 24 26  1  0  0  0  0
 24 25  1  0  0  0  0
 25 83  1  0  0  0  0
 25 84  1  0  0  0  0
 27 85  1  0  0  0  0
 27 26  2  0  0  0  0
 28 23  1  0  0  0  0
 28 27  1  0  0  0  0
 29 86  1  0  0  0  0
 30 29  2  0  0  0  0
 30 87  1  0  0  0  0
 32 15  1  0  0  0  0
 32 90  1  0  0  0  0
 33 94  1  1  0  0  0
 33 32  1  0  0  0  0
 33 35  1  0  0  0  0
 34 33  1  0  0  0  0
 35 92  1  0  0  0  0
 36 13  2  0  0  0  0
 37 38  1  0  0  0  0
 37 40  1  0  0  0  0
 37 39  1  0  0  0  0
 38 98  1  0  0  0  0
 39100  1  0  0  0  0
 40103  1  0  0  0  0
 40104  1  0  0  0  0
 41 10  2  0  0  0  0
 42 74  1  0  0  0  0
 43 42  2  0  0  0  0
 43 44  1  0  0  0  0
 44 45  2  0  0  0  0
 45 73  1  0  0  0  0
 45 46  1  0  0  0  0
 46 72  1  0  0  0  0
 47 46  2  0  0  0  0
 47 48  1  0  0  0  0
 48 49  2  0  0  0  0
 49 57  1  0  0  0  0
 49 50  1  0  0  0  0
 50 56  1  0  0  0  0
 50 51  1  0  0  0  0
 51127  1  0  0  0  0
 52 51  1  0  0  0  0
 52 53  1  0  0  0  0
 52126  1  0  0  0  0
 54 53  1  0  0  0  0
 54119  1  0  0  0  0
 54121  1  0  0  0  0
 55 56  1  0  0  0  0
 55122  1  0  0  0  0
 55 53  1  0  0  0  0
 56124  1  0  0  0  0
 57 58  1  0  0  0  0
 58 59  1  0  0  0  0
 58131  1  0  0  0  0
 59 60  1  0  0  0  0
 60 61  1  0  0  0  0
 60 67  2  0  0  0  0
 61 66  2  0  0  0  0
 62 63  1  0  0  0  0
 62 61  1  0  0  0  0
 64 62  1  0  0  0  0
 65 62  1  0  0  0  0
 66128  1  0  0  0  0
 66 69  1  0  0  0  0
 67 68  1  0  0  0  0
 68 69  1  0  0  0  0
 68130  1  0  0  0  0
 69 70  2  0  0  0  0
 71 59  2  0  0  0  0
 72132  1  0  0  0  0
 72 57  2  0  0  0  0
 73133  1  0  0  0  0
 74134  1  0  0  0  0
 74 73  2  0  0  0  0
 75  4  1  0  0  0  0
 76  5  1  0  0  0  0
 77  6  1  0  0  0  0
 78  9  1  0  0  0  0
 80 20  1  0  0  0  0
 81 21  1  0  0  0  0
 82 25  1  0  0  0  0
 88 18  1  0  0  0  0
 89 17  1  0  0  0  0
 91 34  1  0  0  0  0
 93 35  1  0  0  0  0
 95 32  1  0  0  0  0
 97 38  1  0  0  0  0
 99 38  1  0  0  0  0
101 39  1  0  0  0  0
102 39  1  0  0  0  0
105 40  1  0  0  0  0
108  9  1  0  0  0  0
110  5  1  0  0  0  0
112  3  1  0  0  0  0
113 43  1  0  0  0  0
114 44  1  0  0  0  0
115 47  1  0  0  0  0
116 48  1  0  0  0  0
117 51  1  0  0  0  0
118 52  1  0  0  0  0
120 54  1  0  0  0  0
123 56  1  0  0  0  0
125 55  1  0  0  0  0
129 67  1  0  0  0  0
136  7  1  0  0  0  0
137  8  1  0  0  0  0
M  END
$$$$
